TAS.m
function mpc = TAS
%   MATPOWER 

%% MATPOWER Case Format : Version 2 
mpc.version = '2';

%%-----  Power Flow Data  -----%% 
%% system MVA base
mpc.baseMVA = 100; 

%% bus data 
%	bus_i	type	Pd	Qd	Gs	Bs	area	Vm	Va	baseKV	zone	Vmax	Vmin
mpc.bus = [
    1    1    0    0    0    0        1    0.9805834633198753    -8.623644996540566    1    1    1.06    0.94;
    2    1    0    0    0    0        1    0.9916635691824381    -6.233722448105752    1    1    1.06    0.94;
    3    1    0    0    0    0        1    0.9833688254097314    -8.048114504107602    1    1    1.06    0.94;
    4    1    0    0    0    0        1    0.9920866723476721    -6.158245405423961    1    1    1.06    0.94;
    5    1    0    0    0    0        1    1.009845711222693    6.34078619633662    1    1    1.06    0.94;
    6    1    0    0    0    0        1    1.000416824055812    -4.518541581537899    1    1    1.06    0.94;
    7    1    0    0    0    1320        1    0.9933725240440512    -6.056475122578493    1    2    1.06    0.94;
    8    1    0    0    0    1800        1    1.011490183578064    -30.69405981856795    1    2    1.06    0.94;
    9    1    0    0    0    0        1    1.002614167182508    -32.28420215306436    1    1    1.06    0.94;
    10    1    0    0    0    0        1    0.9956610736044215    -31.94362639848343    1    1    1.06    0.94;
    11    1    0    0    0    0        1    0.973445907349974    -24.6616556166532    1    1    1.06    0.94;
    12    1    450    50    0    0        1    0.9943853892496669    -13.76081373841269    1    3    1.06    0.94;
    13    1    450    50    0    0        1    1.001105716346318    -11.27532447201642    1    3    1.06    0.94;
    14    1    0    0    0    0        1    1.017421537116924    -3.092205772740611    1    1    1.06    0.94;
    15    1    0    0    0    0        1    1.028708582452092    -1.361163064906359    1    1    1.06    0.94;
    16    1    0    0    0    0        1    1.028708582452092    -1.361163064906359    1    1    1.06    0.94;
    17    1    0    0    0    0        1    1.028418283502567    -1.431077122930782    1    1    1.06    0.94;
    18    1    0    0    0    0        1    1.016359504719411    -2.959028981443576    1    1    1.06    0.94;
    19    1    0    0    0    0        1    1.023389312468554    -1.548666192579195    1    1    1.06    0.94;
    20    1    0    0    0    0        1    1.023389312468554    -1.548666192579195    1    1    1.06    0.94;
    21    1    0    0    0    0        1    1.025495829915029    10.07940939375952    1    1    1.06    0.94;
    22    1    0    0    0    0        1    1.031298072229759    11.76379411092294    1    1    1.06    0.94;
    23    1    0    0    0    0        1    1.031298072229759    11.76379411092294    1    1    1.06    0.94;
    24    1    0    0    0    0        1    1.021461342110776    -0.9719206014137713    1    1    1.06    0.94;
    25    1    0    0    0    0        1    1.030988415654704    1.12350747812462    1    1    1.06    0.94;
    26    1    0    0    0    0        1    1.030988415654704    1.12350747812462    1    1    1.06    0.94;
    27    1    4347.0001    150    0    0        1    1.00572837307815    -41.90696285746789    1    3    1.06    0.94;
    28    1    3590.0002    200    0    0        1    0.9978511815749486    -42.03503450857442    1    3    1.06    0.94;
    29    1    0    0    0    0        1    1.024337385897757    -27.19807724970714    1    1    1.06    0.94;
    30    1    0    0    0    0        1    1.033067256688054    -25.825783715041    1    1    1.06    0.94;
    31    1    0    0    0    0        1    1.033067256688054    -25.825783715041    1    1    1.06    0.94;
    32    1    1700    100    0    0        1    0.9833681172966398    -34.58975708369099    1    3    1.06    0.94;
    33    1    0    0    0    0        1    1.000111450165888    -20.94666234205473    1    1    1.06    0.94;
    34    1    0    0    0    0        1    1.015447600083739    -19.19444853518292    1    1    1.06    0.94;
    35    1    0    0    0    0        1    1.015735044538945    -19.5720505378014    1    1    1.06    0.94;
    36    1    0    0    0    125        1    1.047177490582163    -14.34575641217078    1    1    1.06    0.94;
    37    1    0    0    0    105        1    1.045247361621429    -11.84697783702931    1    1    1.06    0.94;
    38    1    0    0    0    80        1    1.050653016719657    3.282434511667597    1    1    1.06    0.94;
    39    1    0    0    0    80        1    1.050653016719657    3.282434511667597    1    1    1.06    0.94;
    40    1    0    0    0    80        1    1.050653016719657    3.282434511667597    1    1    1.06    0.94;
    41    1    0    0    0    75        1    1.049702168800494    3.031700766677299    1    1    1.06    0.94;
    42    1    0    0    0    75        1    1.049702168800494    3.031700766677299    1    1    1.06    0.94;
    43    1    0    0    0    235        1    1.052131513983347    -2.568782496150389    1    1    1.06    0.94;
    44    1    0    0    0    45        1    1.034704142260139    2.241693761249238    1    1    1.06    0.94;
    45    1    0    0    0    45        1    1.034704142260139    2.241693761249238    1    1    1.06    0.94;
    46    1    0    0    0    45        1    1.034704142260139    2.241693761249238    1    1    1.06    0.94;
    47    1    0    0    0    45        1    1.034704142260139    2.241693761249238    1    1    1.06    0.94;
    48    1    0    0    0    220        1    1.04775221481802    -2.622145732836688    1    1    1.06    0.94;
    49    1    0    0    0    40        1    1.038758731005933    16.26106673504866    1    1    1.06    0.94;
    50    1    0    0    0    40        1    1.038758731005933    16.26106673504866    1    1    1.06    0.94;
    51    1    0    0    0    40        1    1.038758731005933    16.26106673504866    1    1    1.06    0.94;
    52    1    0    0    0    40        1    1.038758731005933    16.26106673504866    1    1    1.06    0.94;
    53    1    0    0    0    175        1    1.05012976546436    10.48061311904127    1    1    1.06    0.94;
    54    1    0    0    0    73        1    1.047926948157539    6.700668232527174    1    1    1.06    0.94;
    55    1    0    0    0    73        1    1.047926948157539    6.700668232527174    1    1    1.06    0.94;
    56    1    0    0    0    73        1    1.047926948157539    6.700668232527174    1    1    1.06    0.94;
    57    1    0    0    0    200        1    1.049954148732331    -0.5949108244139339    1    1    1.06    0.94;
    58    1    0    0    0    535        1    1.051760098941538    -42.97222409374427    1    1    1.06    0.94;
    59    1    0    0    0    55        1    1.048907610669834    -22.12189994158149    1    1    1.06    0.94;
    60    1    0    0    0    55        1    1.048907610669834    -22.12189994158149    1    1    1.06    0.94;
    61    1    0    0    0    55        1    1.048907610669834    -22.12189994158149    1    1    1.06    0.94;
    62    1    0    0    0    505        1    1.051777457669035    -43.15738758206486    1    1    1.06    0.94;
    63    1    0    0    0    90        1    1.051192187798744    -26.690908707719    1    1    1.06    0.94;
    64    1    0    0    0    108        1    1.048196239824799    -14.47902242863186    1    1    1.06    0.94;
    65    1    0    0    0    108        1    1.048196239824799    -14.47902242863186    1    1    1.06    0.94;
    66    1    0    0    0    105        1    1.049943234069604    -15.80859499309249    1    1    1.06    0.94;
    67    1    0    0    0    105        1    1.049943234069604    -15.80859499309249    1    1    1.06    0.94;
    68    1    0    0    0    315        1    1.050628931070151    -35.69475602234756    1    1    1.06    0.94;
    69    1    0    0    0    50        1    1.009364856105905    -20.54045200131693    1    1    1.06    0.94;
    70    1    0    0    0    0        1    0.9304487385379738    -11.7915474224033    1    1    1.06    0.94;
    71    1    0    0    0    0        1    0.9594926910613061    -25.45560383234597    1    1    1.06    0.94;
    72    1    0    0    0    0        1    0.9304487385379738    -11.7915474224033    1    1    1.06    0.94;
    73    1    0    0    0    0        1    0.9594926910613061    -25.45560383234597    1    1    1.06    0.94;
    74    1    0    0    0    0        1    1.048888451818037    5.287853601965941    1    4    1.06    0.94;
    75    1    0    0    0    0        1    1.048888451818037    5.287853601965941    1    4    1.06    0.94;
    76    1    0    0    0    0        1    1.04664762555276    9.532105868896725    1    4    1.06    0.94;
    77    1    0    0    0    0        1    1.04664762555276    9.532105868896725    1    4    1.06    0.94;
    78    1    0    0    0    0        1    1.04664762555276    9.532105868896725    1    4    1.06    0.94;
    79    1    0    0    0    0        1    1.048341562874118    -20.23951660440632    1    4    1.06    0.94;
    80    1    0    0    0    0        1    1.048341562874118    -20.23951660440632    1    4    1.06    0.94;
    81    1    0    0    0    0        1    1.048341562874118    -20.23951660440632    1    4    1.06    0.94;
    82    1    0    0    0    0        1    1.047309353403274    -12.12188231396893    1    4    1.06    0.94;
    83    1    0    0    0    0        1    1.047309353403274    -12.12188231396893    1    4    1.06    0.94;
    84    1    0    0    0    0        1    1.049378932242733    -13.92992691600994    1    4    1.06    0.94;
    85    1    0    0    0    0        1    1.049378932242733    -13.92992691600994    1    4    1.06    0.94;
    86    2    0    0    0    78.13339999999999        1    1.029999946424461    -30.70819051597933    1    2    1.06    0.94;
    87    2    0    0    0    78.13339999999999        1    1.029999946424461    -30.70819051597933    1    2    1.06    0.94;
    88    2    0    0    0    78.13339999999999        1    1.029999946424461    -30.70819051597933    1    2    1.06    0.94;
    89    1    0    0    0    0        1    0.9936014212472786    -14.31028078661193    1    1    1.06    0.94;
    90    1    0    0    0    0        1    1.000326403180127    -11.8174336345617    1    1    1.06    0.94;
    91    1    0    0    0    0        1    1.019148287428366    -2.554187132078336    1    1    1.06    0.94;
    92    1    0    0    0    0        1    1.019148287428366    -2.554187132078336    1    1    1.06    0.94;
    93    1    0    0    0    0        1    1.017002927061012    -2.608510060144507    1    1    1.06    0.94;
    94    1    0    0    0    0        1    1.017002927061012    -2.608510060144507    1    1    1.06    0.94;
    95    1    0    0    0    0        1    1.025614570127411    10.49139200607276    1    1    1.06    0.94;
    96    1    0    0    0    0        1    1.025614570127411    10.49139200607276    1    1    1.06    0.94;
    97    1    0    0    0    0        1    1.021941435322638    -0.5825488675139014    1    1    1.06    0.94;
    98    1    0    0    0    0        1    1.021941435322638    -0.5825488675139014    1    1    1.06    0.94;
    99    1    0    0    0    0        1    1.005698313127721    -42.94209032631674    1    1    1.06    0.94;
    100    1    0    0    0    0        1    1.005698313127721    -42.94209032631674    1    1    1.06    0.94;
    101    1    0    0    0    0        1    1.005698313127721    -42.94209032631674    1    1    1.06    0.94;
    102    1    0    0    0    0        1    1.005698313127721    -42.94209032631674    1    1    1.06    0.94;
    103    1    0    0    0    0        1    1.005698313127721    -42.94209032631674    1    1    1.06    0.94;
    104    1    0    0    0    0        1    0.9974279149057228    -43.12153784265309    1    1    1.06    0.94;
    105    1    0    0    0    0        1    0.9974279149057228    -43.12153784265309    1    1    1.06    0.94;
    106    1    0    0    0    0        1    0.9974279149057228    -43.12153784265309    1    1    1.06    0.94;
    107    1    0    0    0    0        1    0.9974279149057228    -43.12153784265309    1    1    1.06    0.94;
    108    1    0    0    0    0        1    1.025950909717844    -26.67981536553178    1    1    1.06    0.94;
    109    1    0    0    0    0        1    0.9829006593761805    -35.6494225186695    1    1    1.06    0.94;
    110    1    0    0    0    0        1    0.9829006593761805    -35.6494225186695    1    1    1.06    0.94;
    111    1    0    0    0    0        1    1.002632396063185    -20.5374231457879    1    1    1.06    0.94;
    112    1    0    0    0    0        1    1.002632396063185    -20.5374231457879    1    1    1.06    0.94;
    113    2    0    0    0    0        1    1.030000110956902    -0.3771324013501651    1    5    1.06    0.94;
    114    2    0    0    0    0        1    1.030000110956902    -0.3771324013501651    1    5    1.06    0.94;
    115    2    0    0    0    0        1    1.030000045240023    0.1735116836189921    1    5    1.06    0.94;
    116    2    0    0    0    0        1    1.019999898612079    12.64042475475769    1    5    1.06    0.94;
    117    2    0    0    0    0        1    1.019999918012131    10.11399640266502    1    5    1.06    0.94;
    118    2    0    0    0    0        1    1.020000025831689    11.37614352921824    1    5    1.06    0.94;
    119    3    26.4    12.79    0    0        1    1    0    1    5    1.06    0.94;
    120    2    0    0    0    0        1    1.029999910864442    -28.53207489343871    1    5    1.06    0.94;
    121    2    0    0    0    0        1    1.029999910864442    -28.53207489343871    1    5    1.06    0.94;
    122    2    0    0    0    0        1    1.029999910864442    -28.53207489343871    1    5    1.06    0.94;
    123    2    0    0    0    0        1    1.039999973667617    -26.32911855759579    1    5    1.06    0.94;
    124    2    0    0    0    0        1    1.039999973667617    -26.32911855759579    1    5    1.06    0.94;
    125    2    0    0    0    0        1    1.037508851213538    -20.84993794953882    1    5    1.06    0.94;
    126    1    0    0    0    0        1    1.049383785828946    6.098890252463836    1    6    1.06    0.94;
    127    1    0    0    0    0        1    1.049383785828946    6.098890252463836    1    6    1.06    0.94;
    128    1    0    0    0    0        1    1.049383785828946    6.098890252463836    1    6    1.06    0.94;
    129    1    0    0    0    0        1    1.033854606581827    4.563653908103042    1    6    1.06    0.94;
    130    1    0    0    0    0        1    1.033854606581827    4.563653908103042    1    6    1.06    0.94;
    131    1    0    0    0    0        1    1.033854606581827    4.563653908103042    1    6    1.06    0.94;
    132    1    0    0    0    0        1    1.033854606581827    4.563653908103042    1    6    1.06    0.94;
    133    1    0    0    0    0        1    1.037548547340193    19.02697877940988    1    6    1.06    0.94;
    134    1    0    0    0    0        1    1.037548547340193    19.02697877940988    1    6    1.06    0.94;
    135    1    0    0    0    0        1    1.037548547340193    19.02697877940988    1    6    1.06    0.94;
    136    1    0    0    0    0        1    1.037548547340193    19.02697877940988    1    6    1.06    0.94;
];
%% generator data
%	bus	Pg	Qg	Qmax	Qmin	Vg	mBase	status	Pmax	Pmin	Pc1	Pc2	Qc1min	Qc1max	Qc2min	Qc2max	ramp_agc	ramp_10	ramp_30	ramp_q	apf
mpc.gen = [
  74  240  0  0  0  1.048888451818037  100  1  400  0   0 0 0 0 0 0 0 0 0 0 0;
  75  240  0  0  0  1.048888451818037  100  1  400  0   0 0 0 0 0 0 0 0 0 0 0;
  76  300  0  0  0  1.04664762555276  100  1  400  0   0 0 0 0 0 0 0 0 0 0 0;
  77  300  0  0  0  1.04664762555276  100  1  400  0   0 0 0 0 0 0 0 0 0 0 0;
  78  300  0  0  0  1.04664762555276  100  1  400  0   0 0 0 0 0 0 0 0 0 0 0;
  79  200  0  0  0  1.048341562874118  100  1  400  0   0 0 0 0 0 0 0 0 0 0 0;
  80  200  0  0  0  1.048341562874118  100  1  400  0   0 0 0 0 0 0 0 0 0 0 0;
  81  200  0  0  0  1.048341562874118  100  1  400  0   0 0 0 0 0 0 0 0 0 0 0;
  82  250  0  0  0  1.047309353403274  100  1  400  0   0 0 0 0 0 0 0 0 0 0 0;
  83  250  0  0  0  1.047309353403274  100  1  400  0   0 0 0 0 0 0 0 0 0 0 0;
  84  200  0  0  0  1.049378932242733  100  1  400  0   0 0 0 0 0 0 0 0 0 0 0;
  85  200  0  0  0  1.049378932242733  100  1  400  0   0 0 0 0 0 0 0 0 0 0 0;
  113  600  245.2935  300  -150  1.030000110956902  100  1  600  0   0 0 0 0 0 0 0 0 0 0 0;
  114  600  245.2935  300  -150  1.030000110956902  100  1  600  0   0 0 0 0 0 0 0 0 0 0 0;
  115  500  194.2758  300  -150  1.030000045240023  100  1  600  0   0 0 0 0 0 0 0 0 0 0 0;
  116  500  67.4777  300  -150  1.019999898612079  100  1  600  0   0 0 0 0 0 0 0 0 0 0 0;
  117  300  52.1644  300  -150  1.019999918012131  100  1  600  0   0 0 0 0 0 0 0 0 0 0 0;
  118  400  58.7127  300  -150  1.020000025831689  100  1  600  0   0 0 0 0 0 0 0 0 0 0 0;
  119  374.6115  20.6841  300  -200  1  100  1  600  0   0 0 0 0 0 0 0 0 0 0 0;
  120  300  130.9227  300  -150  1.029999910864442  100  1  600  0   0 0 0 0 0 0 0 0 0 0 0;
  121  300  130.9227  300  -150  1.029999910864442  100  1  600  0   0 0 0 0 0 0 0 0 0 0 0;
  122  300  130.9227  300  -150  1.029999910864442  100  1  600  0   0 0 0 0 0 0 0 0 0 0 0;
  123  450  220.4507  300  -150  1.039999973667617  100  1  600  0   0 0 0 0 0 0 0 0 0 0 0;
  124  450  220.4507  300  -150  1.039999973667617  100  1  600  0   0 0 0 0 0 0 0 0 0 0 0;
  125  300  300  300  -150  1.037508851213538  100  1  600  0   0 0 0 0 0 0 0 0 0 0 0;
  126  250  0  0  0  1.049383785828946  100  1  400  0   0 0 0 0 0 0 0 0 0 0 0;
  127  250  0  0  0  1.049383785828946  100  1  400  0   0 0 0 0 0 0 0 0 0 0 0;
  128  250  0  0  0  1.049383785828946  100  1  400  0   0 0 0 0 0 0 0 0 0 0 0;
  129  200  0  0  0  1.033854606581827  100  1  400  0   0 0 0 0 0 0 0 0 0 0 0;
  130  200  0  0  0  1.033854606581827  100  1  400  0   0 0 0 0 0 0 0 0 0 0 0;
  131  200  0  0  0  1.033854606581827  100  1  400  0   0 0 0 0 0 0 0 0 0 0 0;
  132  200  0  0  0  1.033854606581827  100  1  400  0   0 0 0 0 0 0 0 0 0 0 0;
  133  240  0  0  0  1.037548547340193  100  1  400  0   0 0 0 0 0 0 0 0 0 0 0;
  134  240  0  0  0  1.037548547340193  100  1  400  0   0 0 0 0 0 0 0 0 0 0 0;
  135  240  0  0  0  1.037548547340193  100  1  400  0   0 0 0 0 0 0 0 0 0 0 0;
  136  240  0  0  0  1.037548547340193  100  1  400  0   0 0 0 0 0 0 0 0 0 0 0;
70    -1500    -506.6355590820312    9999  -9999  1.048888451818037  100  1  -9999  0   0 0 0 0 0 0 0 0 0 0 0;
71    1455    -525.9727783203125    9999  -9999  1.048888451818037  100  1  -9999  0   0 0 0 0 0 0 0 0 0 0 0;
72    -1500    -506.6355590820312    9999  -9999  1.048888451818037  100  1  -9999  0   0 0 0 0 0 0 0 0 0 0 0;
73    1455    -525.9727783203125    9999  -9999  1.048888451818037  100  1  -9999  0   0 0 0 0 0 0 0 0 0 0 0;
];
%% branch data
%	fbus	tbus	r	x	b	rateA	rateB	rateC	ratio	angle	status	angmin	angmax   
mpc.branch = [
  2  1  0.0002  0.0067  -7.9607992  3600  3600  3600  0    0  1  -360  360  ;
  2  1  0.0002  0.0067  0.7852  3600  3600  3600  0    0  1  -360  360  ;
  3  1  0  0.0004  0  0  0  0  0    0  1  -360  360  ;
  4  2  0  0.0001  0  0  0  0  0    0  1  -360  360  ;
  5  7  0.0008899999999999999  0.02012  -0.952  4360  4360  4360  0    0  1  -360  360  ;
  5  7  0.0008899999999999999  0.02012  2.328  4360  4360  4360  0    0  1  -360  360  ;
  6  7  0.00023  0.0043  0.524  0  0  0  0    0  1  -360  360  ;
  6  7  0.00024  0.00439  0.5258  0  0  0  0    0  1  -360  360  ;
  7  2  0.00013  0.00252  0.3286  0  0  0  0    0  1  -360  360  ;
  7  2  0.00013  0.00251  0.3278  0  0  0  0    0  1  -360  360  ;
  7  2  0.00013  0.00249  0.3252  0  0  0  0    0  1  -360  360  ;
  8  9  0.00014  0.00197  0.21968  0  0  0  0    0  1  -360  360  ;
  8  9  0.00014  0.00197  0.21968  0  0  0  0    0  1  -360  360  ;
  9  10  0.00014  0.00197  0.61968  0  0  0  0    0  1  -360  360  ;
  9  10  0.00014  0.00197  0.61968  0  0  0  0    0  1  -360  360  ;
  11  1  0.00045  0.0166  -5.7176004  3600  3600  3600  0    0  1  -360  360  ;
  11  1  0.00045  0.0166  1.9364  3600  3600  3600  0    0  1  -360  360  ;
  11  10  0.00025  0.009209999999999999  -6.5782004  3600  3600  3600  0    0  1  -360  360  ;
  11  10  0.00025  0.009209999999999999  1.0758  3600  3600  3600  0    0  1  -360  360  ;
  15  14  0.00186  0.01307  0.04824  1596  1596  1596  0    0  1  -360  360  ;
  15  14  0.00186  0.01307  0.04824  1596  1596  1596  0    0  1  -360  360  ;
  16  14  0.00186  0.01307  0.04824  1596  1596  1596  0    0  1  -360  360  ;
  17  14  0.00186  0.01307  0.04824  1596  1596  1596  0    0  1  -360  360  ;
  17  14  0.00186  0.01307  0.04824  1596  1596  1596  0    0  1  -360  360  ;
  19  18  0.00186  0.01307  0.04824  1596  1596  1596  0    0  1  -360  360  ;
  19  18  0.00186  0.01307  0.04824  1596  1596  1596  0    0  1  -360  360  ;
  20  18  0.00186  0.01307  0.04824  1596  1596  1596  0    0  1  -360  360  ;
  20  18  0.00186  0.01307  0.04824  1596  1596  1596  0    0  1  -360  360  ;
  22  21  0.00186  0.01307  0.04824  1596  1596  1596  0    0  1  -360  360  ;
  22  21  0.00186  0.01307  0.04824  1596  1596  1596  0    0  1  -360  360  ;
  23  21  0.00186  0.01307  0.04824  1596  1596  1596  0    0  1  -360  360  ;
  23  21  0.00186  0.01307  0.04824  1596  1596  1596  0    0  1  -360  360  ;
  25  24  0.00186  0.01307  0.04824  1596  1596  1596  0    0  1  -360  360  ;
  25  24  0.00186  0.01307  0.04824  1596  1596  1596  0    0  1  -360  360  ;
  26  24  0.00186  0.01307  0.04824  1596  1596  1596  0    0  1  -360  360  ;
  30  29  0.00186  0.01307  0.04824  1596  1596  1596  0    0  1  -360  360  ;
  30  29  0.00186  0.01307  0.04824  1596  1596  1596  0    0  1  -360  360  ;
  31  29  0.00186  0.01307  0.04824  1596  1596  1596  0    0  1  -360  360  ;
  34  33  0.00186  0.01307  0.04824  1596  1596  1596  0    0  1  -360  360  ;
  34  33  0.00186  0.01307  0.04824  1596  1596  1596  0    0  1  -360  360  ;
  35  33  0.00186  0.01307  0.04824  1596  1596  1596  0    0  1  -360  360  ;
  35  33  0.00186  0.01307  0.04824  1596  1596  1596  0    0  1  -360  360  ;
  1  89  8.000000000000001e-05  0.02143    0    1000  1000  1000  1    0  1  -360  360  
  2  90  8.000000000000001e-05  0.02143    0    1000  1000  1000  1    0  1  -360  360  
  7  70  0  0.006    0    3000  3000  3000  1.026249186197905    0  1  -360  360  
  7  72  0  0.006    0    3000  3000  3000  1.026249186197905    0  1  -360  360  
  8  71  0  0.006    0    3000  3000  3000  1.014996512276762    0  1  -360  360  
  8  73  0  0.006    0    3000  3000  3000  1.014996512276762    0  1  -360  360  
  8  86  0.00031  0.023    0    360  360  360  1    0  1  -360  360  
  8  87  0.00031  0.023    0    360  360  360  1    0  1  -360  360  
  8  88  0.00031  0.023    0    360  360  360  1    0  1  -360  360  
  9  99  8.000000000000001e-05  0.02143    0    1000  1000  1000  1    0  1  -360  360  
  9  100  8.000000000000001e-05  0.02143    0    1000  1000  1000  1    0  1  -360  360  
  9  101  8.000000000000001e-05  0.02143    0    1000  1000  1000  1    0  1  -360  360  
  9  102  8.000000000000001e-05  0.02143    0    1000  1000  1000  1    0  1  -360  360  
  9  103  8.000000000000001e-05  0.02143    0    1000  1000  1000  1    0  1  -360  360  
  10  104  8.000000000000001e-05  0.02143    0    1000  1000  1000  1    0  1  -360  360  
  10  105  8.000000000000001e-05  0.02143    0    1000  1000  1000  1    0  1  -360  360  
  10  106  8.000000000000001e-05  0.02143    0    1000  1000  1000  1    0  1  -360  360  
  10  107  8.000000000000001e-05  0.02143    0    1000  1000  1000  1    0  1  -360  360  
  11  109  8.000000000000001e-05  0.02143    0    1000  1000  1000  1    0  1  -360  360  
  11  110  8.000000000000001e-05  0.02143    0    1000  1000  1000  1    0  1  -360  360  
  12  89  5e-05  -0.0021    0    1000  1000  1000  1    0  1  -360  360  
  13  90  5e-05  -0.0021    0    1000  1000  1000  1    0  1  -360  360  
  15  38  0  0.035    0    300  300  300  1    0  1  -360  360  
  15  39  0  0.035    0    300  300  300  1    0  1  -360  360  
  16  40  0  0.035    0    300  300  300  1    0  1  -360  360  
  17  41  0  0.035    0    300  300  300  1    0  1  -360  360  
  17  42  0  0.035    0    300  300  300  1    0  1  -360  360  
  19  44  0  0.035    0    300  300  300  1    0  1  -360  360  
  19  45  0  0.035    0    300  300  300  1    0  1  -360  360  
  20  46  0  0.035    0    300  300  300  1    0  1  -360  360  
  20  47  0  0.035    0    300  300  300  1    0  1  -360  360  
  22  49  0  0.035    0    300  300  300  1    0  1  -360  360  
  22  50  0  0.035    0    300  300  300  1    0  1  -360  360  
  23  51  0  0.035    0    300  300  300  1    0  1  -360  360  
  23  52  0  0.035    0    300  300  300  1    0  1  -360  360  
  25  54  0  0.035    0    300  300  300  1    0  1  -360  360  
  25  55  0  0.035    0    300  300  300  1    0  1  -360  360  
  26  56  0  0.035    0    300  300  300  1    0  1  -360  360  
  27  99  5e-05  -0.0021    0    1000  1000  1000  1    0  1  -360  360  
  27  100  5e-05  -0.0021    0    1000  1000  1000  1    0  1  -360  360  
  27  101  5e-05  -0.0021    0    1000  1000  1000  1    0  1  -360  360  
  27  102  5e-05  -0.0021    0    1000  1000  1000  1    0  1  -360  360  
  27  103  5e-05  -0.0021    0    1000  1000  1000  1    0  1  -360  360  
  28  104  5e-05  -0.0021    0    1000  1000  1000  1    0  1  -360  360  
  28  105  5e-05  -0.0021    0    1000  1000  1000  1    0  1  -360  360  
  28  106  5e-05  -0.0021    0    1000  1000  1000  1    0  1  -360  360  
  28  107  5e-05  -0.0021    0    1000  1000  1000  1    0  1  -360  360  
  30  59  0  0.035    0    300  300  300  1    0  1  -360  360  
  30  60  0  0.035    0    300  300  300  1    0  1  -360  360  
  31  61  0  0.035    0    300  300  300  1    0  1  -360  360  
  32  109  5e-05  -0.0021    0    1000  1000  1000  1    0  1  -360  360  
  32  110  5e-05  -0.0021    0    1000  1000  1000  1    0  1  -360  360  
  34  64  0  0.035    0    300  300  300  1    0  1  -360  360  
  34  65  0  0.035    0    300  300  300  1    0  1  -360  360  
  35  66  0  0.035    0    300  300  300  1    0  1  -360  360  
  35  67  0  0.035    0    300  300  300  1    0  1  -360  360  
  36  89  0.00047  0.04093    0    300  300  300  1    0  1  -360  360  
  37  90  0.00047  0.04093    0    300  300  300  1    0  1  -360  360  
  58  99  0.00047  0.04093    0    300  300  300  1    0  1  -360  360  
  58  100  0.00047  0.04093    0    300  300  300  1    0  1  -360  360  
  58  101  0.00047  0.04093    0    300  300  300  1    0  1  -360  360  
  58  102  0.00047  0.04093    0    300  300  300  1    0  1  -360  360  
  58  103  0.00047  0.04093    0    300  300  300  1    0  1  -360  360  
  62  104  0.00047  0.04093    0    300  300  300  1    0  1  -360  360  
  62  105  0.00047  0.04093    0    300  300  300  1    0  1  -360  360  
  62  106  0.00047  0.04093    0    300  300  300  1    0  1  -360  360  
  62  107  0.00047  0.04093    0    300  300  300  1    0  1  -360  360  
  68  109  0.00047  0.04093    0    300  300  300  1    0  1  -360  360  
  68  110  0.00047  0.04093    0    300  300  300  1    0  1  -360  360  
  74  41  0  0.01806    0    360  360  360  1.000000015    0  1  -360  360  
  75  42  0  0.01806    0    360  360  360  1.000000015    0  1  -360  360  
  76  54  0  0.01806    0    360  360  360  1.000000015    0  1  -360  360  
  77  55  0  0.01806    0    360  360  360  1.000000015    0  1  -360  360  
  78  56  0  0.01806    0    360  360  360  1.000000015    0  1  -360  360  
  79  59  0  0.01806    0    360  360  360  1.000000015    0  1  -360  360  
  80  60  0  0.01806    0    360  360  360  1.000000015    0  1  -360  360  
  81  61  0  0.01806    0    360  360  360  1.000000015    0  1  -360  360  
  82  64  0  0.01806    0    360  360  360  1.000000015    0  1  -360  360  
  83  65  0  0.01806    0    360  360  360  1.000000015    0  1  -360  360  
  84  66  0  0.01806    0    360  360  360  1.000000015    0  1  -360  360  
  85  67  0  0.01806    0    360  360  360  1.000000015    0  1  -360  360  
  91  3  5e-05  0.0157    0    1000  1000  1000  1    0  1  -360  360  
  91  14  5e-05  -0.00158    0    1000  1000  1000  1    0  1  -360  360  
  91  43  0.00021  0.02668    0    360  360  360  1    0  1  -360  360  
  92  3  5e-05  0.0157    0    1000  1000  1000  1    0  1  -360  360  
  92  14  5e-05  -0.00158    0    1000  1000  1000  1    0  1  -360  360  
  92  43  0.00021  0.02668    0    360  360  360  1    0  1  -360  360  
  93  4  5e-05  0.0157    0    1000  1000  1000  1    0  1  -360  360  
  93  18  5e-05  -0.00158    0    1000  1000  1000  1    0  1  -360  360  
  93  48  0.00021  0.02668    0    360  360  360  1    0  1  -360  360  
  94  4  5e-05  0.0157    0    1000  1000  1000  1    0  1  -360  360  
  94  18  5e-05  -0.00158    0    1000  1000  1000  1    0  1  -360  360  
  94  48  0.00021  0.02668    0    360  360  360  1    0  1  -360  360  
  95  5  5e-05  0.0157    0    1000  1000  1000  1    0  1  -360  360  
  95  21  5e-05  -0.00158    0    1000  1000  1000  1    0  1  -360  360  
  95  53  0.00021  0.02668    0    360  360  360  1    0  1  -360  360  
  96  5  5e-05  0.0157    0    1000  1000  1000  1    0  1  -360  360  
  96  21  5e-05  -0.00158    0    1000  1000  1000  1    0  1  -360  360  
  96  53  0.00021  0.02668    0    360  360  360  1    0  1  -360  360  
  97  6  5e-05  0.0157    0    1000  1000  1000  1    0  1  -360  360  
  97  24  5e-05  -0.00158    0    1000  1000  1000  1    0  1  -360  360  
  97  57  0.00021  0.02668    0    360  360  360  1    0  1  -360  360  
  98  6  5e-05  0.0157    0    1000  1000  1000  1    0  1  -360  360  
  98  24  5e-05  -0.00158    0    1000  1000  1000  1    0  1  -360  360  
  98  57  0.00021  0.02668    0    360  360  360  1    0  1  -360  360  
  108  10  5e-05  0.0157    0    1000  1000  1000  1    0  1  -360  360  
  108  29  5e-05  -0.00158    0    1000  1000  1000  1    0  1  -360  360  
  108  63  0.00021  0.02668    0    360  360  360  1    0  1  -360  360  
  111  11  5e-05  0.0157    0    1000  1000  1000  1    0  1  -360  360  
  111  33  5e-05  -0.00158    0    1000  1000  1000  1    0  1  -360  360  
  111  69  0.00021  0.02668    0    360  360  360  1    0  1  -360  360  
  112  11  5e-05  0.0157    0    1000  1000  1000  1    0  1  -360  360  
  112  33  5e-05  -0.00158    0    1000  1000  1000  1    0  1  -360  360  
  112  69  0.00021  0.02668    0    360  360  360  1    0  1  -360  360  
  113  3  0.00026  0.02264    0    780  780  780  1    0  1  -360  360  
  114  3  0.00026  0.02264    0    780  780  780  1    0  1  -360  360  
  115  4  0.00026  0.02264    0    780  780  780  1    0  1  -360  360  
  116  5  0.00026  0.02264    0    780  780  780  1    0  1  -360  360  
  117  5  0.00026  0.02264    0    780  780  780  1    0  1  -360  360  
  118  5  0.00026  0.02264    0    780  780  780  1    0  1  -360  360  
  119  6  0.00026  0.02264    0    780  780  780  1    0  1  -360  360  
  120  9  0.00026  0.02264    0    780  780  780  1    0  1  -360  360  
  121  9  0.00026  0.02264    0    780  780  780  1    0  1  -360  360  
  122  9  0.00026  0.02264    0    780  780  780  1    0  1  -360  360  
  123  10  0.00026  0.02264    0    780  780  780  1    0  1  -360  360  
  124  10  0.00026  0.02264    0    780  780  780  1    0  1  -360  360  
  125  11  0.00026  0.02264    0    780  780  780  1    0  1  -360  360  
  126  38  0  0.02167    0    300  300  300  0.9999999965217392    0  1  -360  360  
  127  39  0  0.02167    0    300  300  300  0.9999999965217392    0  1  -360  360  
  128  40  0  0.02167    0    300  300  300  0.9999999965217392    0  1  -360  360  
  129  44  0  0.02167    0    300  300  300  0.9999999965217392    0  1  -360  360  
  130  45  0  0.02167    0    300  300  300  0.9999999965217392    0  1  -360  360  
  131  46  0  0.02167    0    300  300  300  0.9999999965217392    0  1  -360  360  
  132  47  0  0.02167    0    300  300  300  0.9999999965217392    0  1  -360  360  
  133  49  0  0.02167    0    300  300  300  0.9999999965217392    0  1  -360  360  
  134  50  0  0.02167    0    300  300  300  0.9999999965217392    0  1  -360  360  
  135  51  0  0.02167    0    300  300  300  0.9999999965217392    0  1  -360  360  
  136  52  0  0.02167    0    300  300  300  0.9999999965217392    0  1  -360  360  
];
%% BD data
%% %1.  serial no 
%% %2.  converter node index 
%% %3.  valve node index 
%% %4.  DC BaseKv 
%% %5.  Phase shifting resistance(p.u. in DC side) 
%% %6.  Converter transformer ratio 
%% %7.  Flat wave reactor reactance(p.u.) 
%% %8.  DC line resistance(p.u.)  
%% %9.  DC line inductance(p.u.) 
mpc.BD = [
1   7   70   500   0.004042790426837807   0.9046636904082497   0.000116   0.002   0.000314148   ;
2   8   71   500   0.003630352641228322   0.9442024050847306   0.000116   0.002   0.000314148   ;
3   7   72   500   0.004042790426837807   0.9046636904082497   0.00014   0.002   0.00032   ;
4   8   73   500   0.003630352641228322   0.9442024050847306   0.00014   0.002   0.00032   ;
];
%% busmap data
%	busname  bus_no 
mpc.map = {
'B01525.00',1;
'B02525.00',2;
'B03525.00',3;
'B04525.00',4;
'B05525.00',5;
'B06525.00',6;
'B07525.00',7;
'B08525.00',8;
'B09525.00',9;
'B10525.00',10;
'B11525.00',11;
'B12230.00',12;
'B13230.00',13;
'B14230.00',14;
'B15230.00',15;
'B16230.00',16;
'B17230.00',17;
'B18230.00',18;
'B19230.00',19;
'B20230.00',20;
'B21230.00',21;
'B22230.00',22;
'B23230.00',23;
'B25230.00',24;
'B26230.00',25;
'B27230.00',26;
'B28230.00',27;
'B29230.00',28;
'B30230.00',29;
'B31230.00',30;
'B32230.00',31;
'B33230.00',32;
'B34230.00',33;
'B35230.00',34;
'B36230.00',35;
'B3737.00',36;
'B3837.00',37;
'B3937.00',38;
'B4037.00',39;
'B4137.00',40;
'B4337.00',41;
'B4437.00',42;
'B4537.00',43;
'B4637.00',44;
'B4737.00',45;
'B4837.00',46;
'B4937.00',47;
'B5037.00',48;
'B5137.00',49;
'B5237.00',50;
'B5337.00',51;
'B5437.00',52;
'B5737.00',53;
'B5837.00',54;
'B5937.00',55;
'B6037.00',56;
'B6237.00',57;
'B6337.00',58;
'B6437.00',59;
'B6537.00',60;
'B6637.00',61;
'B6837.00',62;
'B6937.00',63;
'B7037.00',64;
'B7137.00',65;
'B7237.00',66;
'B7337.00',67;
'B7437.00',68;
'B7537.00',69;
'DN01210.00',70;
'DN02199.00',71;
'DP01210.00',72;
'DP02199.00',73;
'PV03-10.40',74;
'PV03-20.40',75;
'PV06-10.40',76;
'PV06-20.40',77;
'PV06-30.40',78;
'PV10-10.40',79;
'PV10-20.40',80;
'PV10-30.40',81;
'PV11-10.40',82;
'PV11-20.40',83;
'PV11-30.40',84;
'PV11-40.40',85;
'SC08-120.00',86;
'SC08-220.00',87;
'SC08-320.00',88;
'T3-011.00',89;
'T3-021.00',90;
'T3-031.00',91;
'T3-041.00',92;
'T3-051.00',93;
'T3-061.00',94;
'T3-071.00',95;
'T3-081.00',96;
'T3-091.00',97;
'T3-101.00',98;
'T3-111.00',99;
'T3-121.00',100;
'T3-131.00',101;
'T3-141.00',102;
'T3-151.00',103;
'T3-161.00',104;
'T3-171.00',105;
'T3-181.00',106;
'T3-191.00',107;
'T3-201.00',108;
'T3-221.00',109;
'T3-231.00',110;
'T3-241.00',111;
'T3-251.00',112;
'TP03-120.00',113;
'TP03-220.00',114;
'TP04-120.00',115;
'TP05-120.00',116;
'TP05-220.00',117;
'TP05-320.00',118;
'TP06-120.00',119;
'TP09-120.00',120;
'TP09-220.00',121;
'TP09-320.00',122;
'TP10-120.00',123;
'TP10-220.00',124;
'TP11-120.00',125;
'WT03-10.69',126;
'WT03-20.69',127;
'WT03-30.69',128;
'WT04-10.69',129;
'WT04-20.69',130;
'WT04-30.69',131;
'WT04-40.69',132;
'WT05-10.69',133;
'WT05-20.69',134;
'WT05-30.69',135;
'WT05-40.69',136;
};
%% busmap data
%	busname  bus_no 
mpc.zonemap = {
'0',1;
'CG',5;
'FD',6;
'FH',3;
'GF',4;
'ZL',2;
};
